Version 4.1
SHEET 1 880 680
WIRE -1168 -1216 -1216 -1216
WIRE -1120 -1216 -1168 -1216
WIRE -992 -1216 -1040 -1216
WIRE -928 -1216 -992 -1216
WIRE -800 -1216 -848 -1216
WIRE -992 -1136 -992 -1216
WIRE -960 -1136 -992 -1136
WIRE -800 -1120 -800 -1216
WIRE -800 -1120 -896 -1120
WIRE -752 -1120 -800 -1120
WIRE -1168 -1104 -1168 -1216
WIRE -1120 -1104 -1168 -1104
WIRE -1008 -1104 -1056 -1104
WIRE -960 -1104 -1008 -1104
WIRE -1008 -1056 -1008 -1104
WIRE -1024 -800 -1056 -800
FLAG -1216 -1216 V1
FLAG -752 -1120 V2
FLAG -1008 -976 0
FLAG -1216 -880 V1
FLAG -1216 -800 0
FLAG -928 -1152 Vcc
FLAG -928 -1088 Vee
FLAG -1056 -800 0
FLAG -1024 -720 Vee
FLAG -1024 -880 Vcc
SYMBOL res -1024 -1232 R90
WINDOW 0 0 56 VBottom 2
WINDOW 3 32 56 Invisible 2
SYMATTR InstName R1
SYMATTR Value 1
SYMBOL res -832 -1232 R90
WINDOW 0 0 56 VBottom 2
WINDOW 3 32 56 Invisible 2
SYMATTR InstName R2
SYMATTR Value 1
SYMBOL res -992 -960 R180
WINDOW 0 36 76 Left 2
WINDOW 3 36 40 Invisible 2
SYMATTR InstName R3
SYMATTR Value 1
SYMBOL cap -1056 -1120 R90
WINDOW 0 0 32 VBottom 2
WINDOW 3 32 32 Invisible 2
SYMATTR InstName C1
SYMATTR Value 1
SYMBOL voltage -1216 -896 R0
WINDOW 3 24 44 Left 2
WINDOW 123 24 72 Left 2
WINDOW 39 0 0 Left 0
SYMATTR InstName Vi
SYMATTR Value ""
SYMATTR Value2 AC 1
SYMBOL voltage -1024 -896 R0
WINDOW 3 36 44 Left 2
WINDOW 123 0 0 Left 0
WINDOW 39 0 0 Left 0
SYMATTR InstName Vcc
SYMATTR Value 15
SYMBOL voltage -1024 -816 R0
WINDOW 0 33 65 Left 2
WINDOW 123 0 0 Left 0
WINDOW 39 0 0 Left 0
SYMATTR InstName Vee
SYMATTR Value 15
SYMBOL OpAmps\\UniversalOpAmp1 -928 -1120 R0
SYMATTR InstName U1
TEXT -856 -1016 Left 2 !.ac dec 100 0.01 100
